
#======================================================================
# CRYSTAL DATA
#----------------------------------------------------------------------
data_VESTA_phase_1

_chemical_name_common                  'HQ_PrK                                '
_cell_length_a                         9.967000
_cell_length_b                         20.023001
_cell_length_c                         12.654000
_cell_angle_alpha                      90.000000
_cell_angle_beta                       111.958000
_cell_angle_gamma                      90.000000
_cell_volume                           2342.155952
_space_group_name_H-M_alt              'P 1'
_space_group_IT_number                 1

loop_
_space_group_symop_operation_xyz
   'x, y, z'

loop_
   _atom_site_label
   _atom_site_occupancy
   _atom_site_fract_x
   _atom_site_fract_y
   _atom_site_fract_z
   _atom_site_adp_type
   _atom_site_U_iso_or_equiv
   _atom_site_type_symbol
   Pr1        1.0     0.005124     0.168985     0.511373    Uiso  ? Pr
   Pr2        1.0     0.994876     0.668985     0.488627    Uiso  ? Pr
   K1         1.0     0.502629     0.416918     0.513403    Uiso  ? K
   K2         1.0     0.497371     0.916918     0.486597    Uiso  ? K
   O1         1.0     0.817684     0.207866     0.309704    Uiso  ? O
   O2         1.0     0.182316     0.707866     0.690296    Uiso  ? O
   O3         1.0     0.255718     0.402494     0.276085    Uiso  ? O
   O4         1.0     0.744282     0.902494     0.723915    Uiso  ? O
   O5         1.0     0.213005     0.254397     0.600458    Uiso  ? O
   O6         1.0     0.786995     0.754397     0.399542    Uiso  ? O
   O7         1.0     0.593757     0.485258     0.740481    Uiso  ? O
   O8         1.0     0.406243     0.985258     0.259519    Uiso  ? O
   O9         1.0     0.712595     0.013343     0.529245    Uiso  ? O
   O10        1.0     0.287405     0.513344     0.470755    Uiso  ? O
   O11        1.0     0.967472     0.129444     0.304231    Uiso  ? O
   O12        1.0     0.032528     0.629444     0.695769    Uiso  ? O
   O13        1.0     0.213873     0.489177     0.162129    Uiso  ? O
   O14        1.0     0.786127     0.989177     0.837871    Uiso  ? O
   O15        1.0     0.197397     0.152419     0.882557    Uiso  ? O
   O16        1.0     0.802603     0.652419     0.117443    Uiso  ? O
   O17        1.0     0.437607     0.463618     0.273338    Uiso  ? O
   O18        1.0     0.562393     0.963618     0.726662    Uiso  ? O
   O19        1.0     0.243291     0.124234     0.491356    Uiso  ? O
   O20        1.0     0.756709     0.624234     0.508644    Uiso  ? O
   O21        1.0     0.720958     0.393500     0.757687    Uiso  ? O
   O22        1.0     0.279042     0.893500     0.242313    Uiso  ? O
   O23        1.0     0.101695     0.045410     0.508525    Uiso  ? O
   O24        1.0     0.898305     0.545410     0.491475    Uiso  ? O
   O25        1.0     0.894015     0.081750     0.613536    Uiso  ? O
   O26        1.0     0.105985     0.581750     0.386464    Uiso  ? O
   O27        1.0     0.299264     0.325587     0.509583    Uiso  ? O
   O28        1.0     0.700736     0.825587     0.490417    Uiso  ? O
   O29        1.0     0.712828     0.319612     0.540458    Uiso  ? O
   O30        1.0     0.287172     0.819612     0.459542    Uiso  ? O
   O31        1.0     0.299645     0.018979     0.479010    Uiso  ? O
   O32        1.0     0.700355     0.518979     0.520990    Uiso  ? O
   O33        1.0     0.766998     0.214051     0.527177    Uiso  ? O
   O34        1.0     0.233002     0.714051     0.472823    Uiso  ? O
   O35        1.0     0.919704     0.292119     0.526915    Uiso  ? O
   O36        1.0     0.080296     0.792119     0.473085    Uiso  ? O
   O37        1.0     0.818679     0.480615     0.864483    Uiso  ? O
   O38        1.0     0.181321     0.980615     0.135517    Uiso  ? O
   O39        1.0     0.788132     0.082701     0.427904    Uiso  ? O
   O40        1.0     0.211868     0.582701     0.572096    Uiso  ? O
   O41        1.0     0.121255     0.257491     0.414275    Uiso  ? O
   O42        1.0     0.878745     0.757491     0.585725    Uiso  ? O
   O43        1.0     0.192970     0.128273     0.711832    Uiso  ? O
   O44        1.0     0.807030     0.628273     0.288168    Uiso  ? O
   O45        1.0     0.041830     0.202256     0.730119    Uiso  ? O
   O46        1.0     0.958170     0.702256     0.269881    Uiso  ? O
   O47        1.0     0.801793     0.166016     0.144093    Uiso  ? O
   O48        1.0     0.198207     0.666016     0.855907    Uiso  ? O
   O49        1.0     0.811551     0.274914     0.918793    Uiso  ? O
   O50        1.0     0.188449     0.774914     0.081207    Uiso  ? O
   O51        1.0     0.373864     0.355749     0.967108    Uiso  ? O
   O52        1.0     0.626136     0.855749     0.032892    Uiso  ? O
   O53        1.0     0.663512     0.360897     0.996732    Uiso  ? O
   O54        1.0     0.336488     0.860897     0.003268    Uiso  ? O
   O55        1.0     0.116662     0.233668     0.035613    Uiso  ? O
   O56        1.0     0.883338     0.733668     0.964387    Uiso  ? O
   N1         1.0     0.710843     0.452693     0.787839    Uiso  ? N
   N2         1.0     0.289157     0.952693     0.212161    Uiso  ? N
   N3         1.0     0.304421     0.451448     0.237781    Uiso  ? N
   N4         1.0     0.695579     0.951448     0.762218    Uiso  ? N
   N5         1.0     0.213272     0.280255     0.507888    Uiso  ? N
   N6         1.0     0.786728     0.780255     0.492112    Uiso  ? N
   N7         1.0     0.797841     0.276406     0.531619    Uiso  ? N
   N8         1.0     0.202159     0.776407     0.468381    Uiso  ? N
   N9         1.0     0.144677     0.161127     0.776478    Uiso  ? N
   N10        1.0     0.855323     0.661127     0.223522    Uiso  ? N
   N11        1.0     0.796080     0.058150     0.523346    Uiso  ? N
   N12        1.0     0.203920     0.558150     0.476654    Uiso  ? N
   N13        1.0     0.860747     0.167826     0.249847    Uiso  ? N
   N14        1.0     0.139253     0.667826     0.750153    Uiso  ? N
   N15        1.0     0.216933     0.061707     0.493011    Uiso  ? N
   N16        1.0     0.783067     0.561707     0.506989    Uiso  ? N
   N17        1.0     0.668928     0.114713     0.812056    Uiso  ? N
   N18        1.0     0.331072     0.614713     0.187944    Uiso  ? N
   N19        1.0     0.055790     0.430771     0.822286    Uiso  ? N
   N20        1.0     0.944210     0.930771     0.177714    Uiso  ? N
   N21        1.0     0.956911     0.423628     0.221688    Uiso  ? N
   N22        1.0     0.043089     0.923628     0.778312    Uiso  ? N
   N23        1.0     0.375066     0.125353     0.230540    Uiso  ? N
   N24        1.0     0.624934     0.625353     0.769460    Uiso  ? N
   H1         1.0     0.872244     0.307703     0.901453    Uiso  ? H
   H2         1.0     0.127756     0.807703     0.098547    Uiso  ? H
   H3         1.0     0.704834     0.064637     0.826945    Uiso  ? H
   H4         1.0     0.295166     0.564637     0.173055    Uiso  ? H
   H5         1.0     0.576409     0.230804     0.940758    Uiso  ? H
   H6         1.0     0.423591     0.730804     0.059242    Uiso  ? H
   H7         1.0     0.412939     0.210704     0.827459    Uiso  ? H
   H8         1.0     0.587061     0.710704     0.172541    Uiso  ? H
   H9         1.0     0.475665     0.097774     0.838365    Uiso  ? H
   H10        1.0     0.524335     0.597774     0.161635    Uiso  ? H
   H11        1.0     0.629282     0.116987     0.964120    Uiso  ? H
   H12        1.0     0.370718     0.616987     0.035880    Uiso  ? H
   H13        1.0     0.415649     0.195973     0.625311    Uiso  ? H
   H14        1.0     0.584351     0.695973     0.374689    Uiso  ? H
   H15        1.0     0.573071     0.218343     0.599380    Uiso  ? H
   H16        1.0     0.426928     0.718343     0.400620    Uiso  ? H
   H17        1.0     0.554014     0.287927     0.755083    Uiso  ? H
   H18        1.0     0.445986     0.787927     0.244917    Uiso  ? H
   H19        1.0     0.793616     0.249294     0.755222    Uiso  ? H
   H20        1.0     0.206384     0.749294     0.244778    Uiso  ? H
   H21        1.0     0.500943     0.086414     0.659922    Uiso  ? H
   H22        1.0     0.499057     0.586414     0.340078    Uiso  ? H
   H23        1.0     0.664984     0.109966     0.645523    Uiso  ? H
   H24        1.0     0.335016     0.609966     0.354477    Uiso  ? H
   H25        1.0     0.874352     0.141365     0.813812    Uiso  ? H
   H26        1.0     0.125648     0.641365     0.186188    Uiso  ? H
   H27        1.0     0.850876     0.154495     0.946052    Uiso  ? H
   H28        1.0     0.149124     0.654495     0.053948    Uiso  ? H
   H29        1.0     0.473077     0.355954     0.966214    Uiso  ? H
   H30        1.0     0.526923     0.855954     0.033786    Uiso  ? H
   H31        1.0     0.961288     0.437621     0.838833    Uiso  ? H
   H32        1.0     0.038712     0.937621     0.161167    Uiso  ? H
   H33        1.0     0.295326     0.527331     0.803165    Uiso  ? H
   H34        1.0     0.704674     0.027331     0.196835    Uiso  ? H
   H35        1.0     0.390963     0.484504     0.932820    Uiso  ? H
   H36        1.0     0.609037     0.984504     0.067180    Uiso  ? H
   H37        1.0     0.044332     0.326053     0.804446    Uiso  ? H
   H38        1.0     0.955668     0.826053     0.195554    Uiso  ? H
   H39        1.0     0.128420     0.354484     0.948655    Uiso  ? H
   H40        1.0     0.871580     0.854484     0.051345    Uiso  ? H
   H41        1.0     0.389690     0.415119     0.770384    Uiso  ? H
   H42        1.0     0.610310     0.915119     0.229616    Uiso  ? H
   H43        1.0     0.984609     0.490063     0.674606    Uiso  ? H
   H44        1.0     0.015391     0.990063     0.325394    Uiso  ? H
   H45        1.0     0.931022     0.404692     0.651521    Uiso  ? H
   H46        1.0     0.068978     0.904692     0.348479    Uiso  ? H
   H47        1.0     0.274739     0.313016     0.805557    Uiso  ? H
   H48        1.0     0.725261     0.813016     0.194443    Uiso  ? H
   H49        1.0     0.175583     0.461764     0.618271    Uiso  ? H
   H50        1.0     0.824417     0.961764     0.381729    Uiso  ? H
   H51        1.0     0.146191     0.374990     0.627988    Uiso  ? H
   H52        1.0     0.853809     0.874990     0.372012    Uiso  ? H
   H53        1.0     0.098469     0.532368     0.862518    Uiso  ? H
   H54        1.0     0.901531     0.032368     0.137482    Uiso  ? H
   H55        1.0     0.183783     0.475767     0.977354    Uiso  ? H
   H56        1.0     0.816217     0.975767     0.022646    Uiso  ? H
   H57        1.0     0.703416     0.327471     0.957845    Uiso  ? H
   H58        1.0     0.296584     0.827471     0.042155    Uiso  ? H
   H59        1.0     0.067780     0.427987     0.238615    Uiso  ? H
   H60        1.0     0.932220     0.927987     0.761385    Uiso  ? H
   H61        1.0     0.645829     0.484224     0.052344    Uiso  ? H
   H62        1.0     0.354171     0.984224     0.947656    Uiso  ? H
   H63        1.0     0.686395     0.513638     0.193386    Uiso  ? H
   H64        1.0     0.313605     0.013638     0.806614    Uiso  ? H
   H65        1.0     0.926377     0.527413     0.207944    Uiso  ? H
   H66        1.0     0.073623     0.027413     0.792057    Uiso  ? H
   H67        1.0     0.889889     0.484934     0.075972    Uiso  ? H
   H68        1.0     0.110111     0.984934     0.924028    Uiso  ? H
   H69        1.0     0.573449     0.398509     0.162504    Uiso  ? H
   H70        1.0     0.426551     0.898509     0.837496    Uiso  ? H
   H71        1.0     0.721691     0.302756     0.143700    Uiso  ? H
   H72        1.0     0.278309     0.802756     0.856300    Uiso  ? H
   H73        1.0     0.964065     0.464852     0.376381    Uiso  ? H
   H74        1.0     0.035935     0.964852     0.623619    Uiso  ? H
   H75        1.0     0.012986     0.378645     0.382985    Uiso  ? H
   H76        1.0     0.987014     0.878645     0.617015    Uiso  ? H
   H77        1.0     0.968115     0.319751     0.202640    Uiso  ? H
   H78        1.0     0.031885     0.819751     0.797360    Uiso  ? H
   H79        1.0     0.935849     0.367309     0.076391    Uiso  ? H
   H80        1.0     0.064151     0.867309     0.923609    Uiso  ? H
   H81        1.0     0.771794     0.345020     0.332796    Uiso  ? H
   H82        1.0     0.228206     0.845020     0.667204    Uiso  ? H
   H83        1.0     0.733613     0.428534     0.358361    Uiso  ? H
   H84        1.0     0.266387     0.928534     0.641639    Uiso  ? H
   H85        1.0     0.150313     0.207654     0.984169    Uiso  ? H
   H86        1.0     0.849687     0.707654     0.015831    Uiso  ? H
   H87        1.0     0.381554     0.073643     0.245837    Uiso  ? H
   H88        1.0     0.618446     0.573643     0.754164    Uiso  ? H
   H89        1.0     0.170781     0.132969     0.244043    Uiso  ? H
   H90        1.0     0.829219     0.632969     0.755957    Uiso  ? H
   H91        1.0     0.165712     0.114870     0.104891    Uiso  ? H
   H92        1.0     0.834288     0.614869     0.895109    Uiso  ? H
   H93        1.0     0.557955     0.120355     0.186400    Uiso  ? H
   H94        1.0     0.442045     0.620355     0.813600    Uiso  ? H
   H95        1.0     0.389015     0.109374     0.070656    Uiso  ? H
   H96        1.0     0.610985     0.609374     0.929344    Uiso  ? H
   H97        1.0     0.545520     0.261134     0.344319    Uiso  ? H
   H98        1.0     0.454480     0.761134     0.655681    Uiso  ? H
   H99        1.0     0.378203     0.262441     0.362843    Uiso  ? H
   H100       1.0     0.621797     0.762441     0.637157    Uiso  ? H
   H101       1.0     0.388781     0.224220     0.030801    Uiso  ? H
   H102       1.0     0.611219     0.724220     0.969199    Uiso  ? H
   H103       1.0     0.551699     0.234473     0.149603    Uiso  ? H
   H104       1.0     0.448301     0.734473     0.850397    Uiso  ? H
   H105       1.0     0.150671     0.246070     0.201627    Uiso  ? H
   H106       1.0     0.849329     0.746070     0.798373    Uiso  ? H
   H107       1.0     0.351047     0.303646     0.167895    Uiso  ? H
   H108       1.0     0.648953     0.803646     0.832105    Uiso  ? H
   H109       1.0     0.565323     0.145873     0.371860    Uiso  ? H
   H110       1.0     0.434677     0.645873     0.628140    Uiso  ? H
   H111       1.0     0.402552     0.146874     0.400133    Uiso  ? H
   H112       1.0     0.597448     0.646874     0.599867    Uiso  ? H
   C1         1.0     0.530653     0.204895     0.858625    Uiso  ? C
   C2         1.0     0.469347     0.704895     0.141375    Uiso  ? C
   C3         1.0     0.570643     0.130177     0.874424    Uiso  ? C
   C4         1.0     0.429357     0.630177     0.125576    Uiso  ? C
   C5         1.0     0.533662     0.195447     0.661058    Uiso  ? C
   C6         1.0     0.466338     0.695447     0.338942    Uiso  ? C
   C7         1.0     0.587718     0.235545     0.772151    Uiso  ? C
   C8         1.0     0.412282     0.735545     0.227849    Uiso  ? C
   C9         1.0     0.752713     0.232312     0.820078    Uiso  ? C
   C10        1.0     0.247287     0.732312     0.179922    Uiso  ? C
   C11        1.0     0.588504     0.123230     0.685601    Uiso  ? C
   C12        1.0     0.411496     0.623230     0.314399    Uiso  ? C
   C13        1.0     0.799911     0.159260     0.853065    Uiso  ? C
   C14        1.0     0.200089     0.659260     0.146935    Uiso  ? C
   C15        1.0     0.293175     0.483636     0.854918    Uiso  ? C
   C16        1.0     0.706825     0.983636     0.145082    Uiso  ? C
   C17        1.0     0.119197     0.362817     0.860464    Uiso  ? C
   C18        1.0     0.880803     0.862817     0.139536    Uiso  ? C
   C19        1.0     0.289023     0.419835     0.786232    Uiso  ? C
   C20        1.0     0.710977     0.919835     0.213768    Uiso  ? C
   C21        1.0     0.020955     0.438507     0.696291    Uiso  ? C
   C22        1.0     0.979046     0.938507     0.303709    Uiso  ? C
   C23        1.0     0.270223     0.358577     0.853320    Uiso  ? C
   C24        1.0     0.729777     0.858577     0.146680    Uiso  ? C
   C25        1.0     0.158361     0.422828     0.672708    Uiso  ? C
   C26        1.0     0.841639     0.922828     0.327292    Uiso  ? C
   C27        1.0     0.158484     0.485234     0.886554    Uiso  ? C
   C28        1.0     0.841516     0.985234     0.113447    Uiso  ? C
   C29        1.0     0.714660     0.476061     0.142060    Uiso  ? C
   C30        1.0     0.285340     0.976061     0.857940    Uiso  ? C
   C31        1.0     0.874944     0.483499     0.157511    Uiso  ? C
   C32        1.0     0.125056     0.983499     0.842489    Uiso  ? C
   C33        1.0     0.688945     0.405903     0.180245    Uiso  ? C
   C34        1.0     0.311055     0.905903     0.819755    Uiso  ? C
   C35        1.0     0.741328     0.353047     0.117065    Uiso  ? C
   C36        1.0     0.258672     0.853047     0.882935    Uiso  ? C
   C37        1.0     0.935997     0.416516     0.333144    Uiso  ? C
   C38        1.0     0.064003     0.916516     0.666856    Uiso  ? C
   C39        1.0     0.906693     0.361615     0.151302    Uiso  ? C
   C40        1.0     0.093307     0.861615     0.848698    Uiso  ? C
   C41        1.0     0.777539     0.397140     0.307970    Uiso  ? C
   C42        1.0     0.222461     0.897140     0.692030    Uiso  ? C
   C43        1.0     0.218272     0.145521     0.181107    Uiso  ? C
   C44        1.0     0.781728     0.645521     0.818893    Uiso  ? C
   C45        1.0     0.446905     0.139113     0.147071    Uiso  ? C
   C46        1.0     0.553095     0.639113     0.852929    Uiso  ? C
   C47        1.0     0.437780     0.238345     0.315700    Uiso  ? C
   C48        1.0     0.562220     0.738345     0.684300    Uiso  ? C
   C49        1.0     0.441344     0.214607     0.122385    Uiso  ? C
   C50        1.0     0.558656     0.714607     0.877615    Uiso  ? C
   C51        1.0     0.205547     0.221065     0.151599    Uiso  ? C
   C52        1.0     0.794453     0.721065     0.848401    Uiso  ? C
   C53        1.0     0.359099     0.250052     0.187307    Uiso  ? C
   C54        1.0     0.640901     0.750052     0.812693    Uiso  ? C
   C55        1.0     0.452474     0.162605     0.340277    Uiso  ? C
   C56        1.0     0.547526     0.662605     0.659723    Uiso  ? C
