
#======================================================================
# CRYSTAL DATA
#----------------------------------------------------------------------
data_VESTA_phase_1

_chemical_name_common                  'CONTCAR                               '
_cell_length_a                         23.413033
_cell_length_b                         9.860880
_cell_length_c                         10.345473
_cell_angle_alpha                      89.970360
_cell_angle_beta                       89.567940
_cell_angle_gamma                      90.366020
_cell_volume                           2388.374481
_space_group_name_H-M_alt              'P 1'
_space_group_IT_number                 1

loop_
_space_group_symop_operation_xyz
   'x, y, z'

loop_
   _atom_site_label
   _atom_site_occupancy
   _atom_site_fract_x
   _atom_site_fract_y
   _atom_site_fract_z
   _atom_site_adp_type
   _atom_site_U_iso_or_equiv
   _atom_site_type_symbol
   O1         1.0     0.486995     0.387085     0.235513    Uiso  ? O
   O2         1.0     0.539115     0.122821     0.173942    Uiso  ? O
   O3         1.0     0.493268     0.537980     0.081901    Uiso  ? O
   O4         1.0     0.367560     0.641655     0.377172    Uiso  ? O
   O5         1.0     0.485576     0.978877     0.284642    Uiso  ? O
   O6         1.0     0.394746     0.367034     0.048115    Uiso  ? O
   O7         1.0     0.319134     0.268998     0.961543    Uiso  ? O
   O8         1.0     0.492439     0.603906     0.285091    Uiso  ? O
   O9         1.0     0.405780     0.206560     0.905351    Uiso  ? O
   O10        1.0     0.446347     0.130102     0.157377    Uiso  ? O
   O11        1.0     0.364690     0.808051     0.518777    Uiso  ? O
   O12        1.0     0.323675     0.831764     0.330233    Uiso  ? O
   O13        1.0     0.987438     0.888679     0.234881    Uiso  ? O
   O14        1.0     0.038447     0.624758     0.174450    Uiso  ? O
   O15        1.0     0.994101     0.038088     0.080016    Uiso  ? O
   O16        1.0     0.884930     0.147518     0.456964    Uiso  ? O
   O17        1.0     0.984555     0.478786     0.281662    Uiso  ? O
   O18        1.0     0.895097     0.870004     0.044886    Uiso  ? O
   O19        1.0     0.819224     0.780123     0.951951    Uiso  ? O
   O20        1.0     0.994394     0.105879     0.282594    Uiso  ? O
   O21        1.0     0.905372     0.707793     0.903633    Uiso  ? O
   O22        1.0     0.945740     0.631735     0.155573    Uiso  ? O
   O23        1.0     0.861182     0.360604     0.444366    Uiso  ? O
   O24        1.0     0.825480     0.213953     0.306175    Uiso  ? O
   O25        1.0     0.628509     0.684484     0.489220    Uiso  ? O
   O26        1.0     0.465201     0.458866     0.826776    Uiso  ? O
   O27        1.0     0.499933     0.987741     0.716369    Uiso  ? O
   O28        1.0     0.557432     0.455256     0.854262    Uiso  ? O
   O29        1.0     0.499798     0.047039     0.921240    Uiso  ? O
   O30        1.0     0.597308     0.366705     0.101016    Uiso  ? O
   O31        1.0     0.679645     0.267529     0.059863    Uiso  ? O
   O32        1.0     0.521647     0.572202     0.693107    Uiso  ? O
   O33        1.0     0.602149     0.208268     0.954046    Uiso  ? O
   O34        1.0     0.509463     0.201892     0.772452    Uiso  ? O
   O35        1.0     0.628671     0.854361     0.627237    Uiso  ? O
   O36        1.0     0.670092     0.662713     0.678413    Uiso  ? O
   O37        1.0     0.129380     0.193472     0.488393    Uiso  ? O
   O38        1.0     0.966365     0.960428     0.825242    Uiso  ? O
   O39        1.0    -0.003741     0.487677     0.717100    Uiso  ? O
   O40        1.0     0.058574     0.953144     0.852558    Uiso  ? O
   O41        1.0    -0.000314     0.546220     0.921927    Uiso  ? O
   O42        1.0     0.097431     0.866504     0.100746    Uiso  ? O
   O43        1.0     0.179684     0.766876     0.059672    Uiso  ? O
   O44        1.0     0.023569     0.073585     0.692892    Uiso  ? O
   O45        1.0     0.102037     0.707183     0.954666    Uiso  ? O
   O46        1.0     0.009152     0.700857     0.772895    Uiso  ? O
   O47        1.0     0.121484     0.377678     0.606364    Uiso  ? O
   O48        1.0     0.171655     0.206081     0.677628    Uiso  ? O
   N1         1.0     0.351917     0.760439     0.409643    Uiso  ? N
   N2         1.0     0.490792     0.511969     0.203153    Uiso  ? N
   N3         1.0     0.490273     0.075165     0.207020    Uiso  ? N
   N4         1.0     0.371769     0.281102     0.971767    Uiso  ? N
   N5         1.0     0.345224     0.816428     0.071274    Uiso  ? N
   N6         1.0     0.358853     0.401684     0.508721    Uiso  ? N
   N7         1.0     0.856678     0.241930     0.402610    Uiso  ? N
   N8         1.0     0.991881     0.013146     0.201570    Uiso  ? N
   N9         1.0     0.989513     0.576259     0.205709    Uiso  ? N
   N10        1.0     0.871833     0.786265     0.966910    Uiso  ? N
   N11        1.0     0.844666     0.316624     0.067069    Uiso  ? N
   N12        1.0     0.857659     0.895645     0.510852    Uiso  ? N
   N13        1.0     0.642807     0.733889     0.598884    Uiso  ? N
   N14        1.0     0.514921     0.497364     0.789366    Uiso  ? N
   N15        1.0     0.503117     0.076858     0.801542    Uiso  ? N
   N16        1.0     0.627761     0.280720     0.038312    Uiso  ? N
   N17        1.0     0.654751     0.818996     0.921202    Uiso  ? N
   N18        1.0     0.643454     0.404680     0.482075    Uiso  ? N
   N19        1.0     0.140990     0.259837     0.591105    Uiso  ? N
   N20        1.0     0.016290     0.997630     0.788158    Uiso  ? N
   N21        1.0     0.001763     0.576202     0.802134    Uiso  ? N
   N22        1.0     0.127801     0.780057     0.038378    Uiso  ? N
   N23        1.0     0.157043     0.318672     0.921678    Uiso  ? N
   N24        1.0     0.143779     0.913805     0.482843    Uiso  ? N
   F1         1.0     0.259167     0.705888     0.811335    Uiso  ? F
   F2         1.0     0.263782     0.127187     0.462364    Uiso  ? F
   F3         1.0     0.759607     0.210204     0.805375    Uiso  ? F
   F4         1.0     0.762679     0.623913     0.458355    Uiso  ? F
   F5         1.0     0.740294     0.705115     0.182012    Uiso  ? F
   F6         1.0     0.734614     0.124169     0.545618    Uiso  ? F
   F7         1.0     0.237579     0.202784     0.190195    Uiso  ? F
   F8         1.0     0.235636     0.631728     0.543503    Uiso  ? F
   H1         1.0     0.341232     0.817460     0.172851    Uiso  ? H
   H2         1.0     0.409494     0.959633     0.015355    Uiso  ? H
   H3         1.0     0.434441     0.815825     0.101505    Uiso  ? H
   H4         1.0     0.361143     0.604440     0.075978    Uiso  ? H
   H5         1.0     0.289630     0.649428     0.030745    Uiso  ? H
   H6         1.0     0.309897     0.013047     0.059201    Uiso  ? H
   H7         1.0     0.259771     0.876356     0.051783    Uiso  ? H
   H8         1.0     0.447860     0.697106     0.908386    Uiso  ? H
   H9         1.0     0.423019     0.836554     0.817228    Uiso  ? H
   H10        1.0     0.362430     0.593547     0.833753    Uiso  ? H
   H11        1.0     0.265684     0.962823     0.832392    Uiso  ? H
   H12        1.0     0.340334     0.982724     0.838679    Uiso  ? H
   H13        1.0     0.324390     0.786645     0.705726    Uiso  ? H
   H14        1.0     0.360413     0.505387     0.486810    Uiso  ? H
   H15        1.0     0.301353     0.336387     0.360150    Uiso  ? H
   H16        1.0     0.374047     0.363827     0.309243    Uiso  ? H
   H17        1.0     0.455003     0.198819     0.421654    Uiso  ? H
   H18        1.0     0.429290     0.131593     0.569883    Uiso  ? H
   H19        1.0     0.448487     0.419213     0.499582    Uiso  ? H
   H20        1.0     0.422157     0.359999     0.651644    Uiso  ? H
   H21        1.0     0.365741     0.111701     0.344703    Uiso  ? H
   H22        1.0     0.274297     0.195583     0.696458    Uiso  ? H
   H23        1.0     0.349241     0.196700     0.708811    Uiso  ? H
   H24        1.0     0.273058     0.404317     0.570290    Uiso  ? H
   H25        1.0     0.323206     0.433310     0.694896    Uiso  ? H
   H26        1.0     0.327124     0.023504     0.551253    Uiso  ? H
   H27        1.0     0.840387     0.311628     0.167631    Uiso  ? H
   H28        1.0     0.909508     0.459889     0.014426    Uiso  ? H
   H29        1.0     0.933785     0.314890     0.099611    Uiso  ? H
   H30        1.0     0.860318     0.104446     0.069236    Uiso  ? H
   H31        1.0     0.789058     0.150302     0.023794    Uiso  ? H
   H32        1.0     0.809654     0.513711     0.056896    Uiso  ? H
   H33        1.0     0.759386     0.377340     0.047289    Uiso  ? H
   H34        1.0     0.947695     0.197466     0.905864    Uiso  ? H
   H35        1.0     0.924039     0.338608     0.815506    Uiso  ? H
   H36        1.0     0.862480     0.096556     0.827312    Uiso  ? H
   H37        1.0     0.766196     0.466615     0.829026    Uiso  ? H
   H38        1.0     0.840891     0.486048     0.837014    Uiso  ? H
   H39        1.0     0.825036     0.291893     0.700587    Uiso  ? H
   H40        1.0     0.860281     0.000374     0.490941    Uiso  ? H
   H41        1.0     0.801273     0.833660     0.359238    Uiso  ? H
   H42        1.0     0.874425     0.861091     0.311978    Uiso  ? H
   H43        1.0     0.954157     0.694562     0.423311    Uiso  ? H
   H44        1.0     0.928196     0.625212     0.570308    Uiso  ? H
   H45        1.0     0.947216     0.914055     0.504321    Uiso  ? H
   H46        1.0     0.920419     0.852575     0.654821    Uiso  ? H
   H47        1.0     0.865181     0.607624     0.344889    Uiso  ? H
   H48        1.0     0.771690     0.689909     0.694643    Uiso  ? H
   H49        1.0     0.846608     0.690724     0.708428    Uiso  ? H
   H50        1.0     0.771806     0.900878     0.570357    Uiso  ? H
   H51        1.0     0.821607     0.927306     0.696190    Uiso  ? H
   H52        1.0     0.824827     0.520346     0.550843    Uiso  ? H
   H53        1.0     0.656413     0.817182     0.820800    Uiso  ? H
   H54        1.0     0.593627     0.968205     0.974779    Uiso  ? H
   H55        1.0     0.565523     0.823608     0.894162    Uiso  ? H
   H56        1.0     0.634765     0.608894     0.920786    Uiso  ? H
   H57        1.0     0.707455     0.648471     0.962854    Uiso  ? H
   H58        1.0     0.692033     0.014565     0.931283    Uiso  ? H
   H59        1.0     0.741089     0.876202     0.936608    Uiso  ? H
   H60        1.0     0.550675     0.715017     0.093487    Uiso  ? H
   H61        1.0     0.580904     0.853511     0.177771    Uiso  ? H
   H62        1.0     0.635092     0.601287     0.162395    Uiso  ? H
   H63        1.0     0.739245     0.961663     0.154299    Uiso  ? H
   H64        1.0     0.664870     0.987801     0.153241    Uiso  ? H
   H65        1.0     0.677190     0.792636     0.287532    Uiso  ? H
   H66        1.0     0.642922     0.511199     0.492202    Uiso  ? H
   H67        1.0     0.697555     0.346965     0.638671    Uiso  ? H
   H68        1.0     0.624507     0.378033     0.681643    Uiso  ? H
   H69        1.0     0.543624     0.203753     0.567013    Uiso  ? H
   H70        1.0     0.573296     0.133735     0.423662    Uiso  ? H
   H71        1.0     0.553845     0.424550     0.482872    Uiso  ? H
   H72        1.0     0.582196     0.357918     0.336074    Uiso  ? H
   H73        1.0     0.630567     0.124364     0.659355    Uiso  ? H
   H74        1.0     0.726859     0.185035     0.308892    Uiso  ? H
   H75        1.0     0.651955     0.189452     0.294277    Uiso  ? H
   H76        1.0     0.730036     0.398439     0.427811    Uiso  ? H
   H77        1.0     0.682263     0.423774     0.297499    Uiso  ? H
   H78        1.0     0.669527     0.022881     0.459000    Uiso  ? H
   H79        1.0     0.161268     0.311564     0.821094    Uiso  ? H
   H80        1.0     0.095742     0.469865     0.968382    Uiso  ? H
   H81        1.0     0.068309     0.324982     0.886898    Uiso  ? H
   H82        1.0     0.135754     0.109522     0.920826    Uiso  ? H
   H83        1.0     0.208005     0.146676     0.968807    Uiso  ? H
   H84        1.0     0.194626     0.513654     0.934232    Uiso  ? H
   H85        1.0     0.243174     0.374553     0.942962    Uiso  ? H
   H86        1.0     0.049645     0.219510     0.086530    Uiso  ? H
   H87        1.0     0.079584     0.357704     0.171611    Uiso  ? H
   H88        1.0     0.132074     0.102948     0.162193    Uiso  ? H
   H89        1.0     0.239013     0.458591     0.160385    Uiso  ? H
   H90        1.0     0.164949     0.488650     0.154468    Uiso  ? H
   H91        1.0     0.173406     0.293549     0.289687    Uiso  ? H
   H92        1.0     0.143452     0.020110     0.493862    Uiso  ? H
   H93        1.0     0.198980     0.855299     0.637173    Uiso  ? H
   H94        1.0     0.126007     0.885557     0.682804    Uiso  ? H
   H95        1.0     0.044696     0.711881     0.569794    Uiso  ? H
   H96        1.0     0.073515     0.642552     0.425358    Uiso  ? H
   H97        1.0     0.054037     0.933028     0.485834    Uiso  ? H
   H98        1.0     0.081917     0.866994     0.338252    Uiso  ? H
   H99        1.0     0.132171     0.632387     0.658990    Uiso  ? H
   H100       1.0     0.226973     0.695987     0.306568    Uiso  ? H
   H101       1.0     0.152123     0.698698     0.294040    Uiso  ? H
   H102       1.0     0.230083     0.908921     0.425429    Uiso  ? H
   H103       1.0     0.181389     0.933587     0.297062    Uiso  ? H
   H104       1.0     0.169986     0.532393     0.456835    Uiso  ? H
   C1         1.0     0.405245     0.849792     0.025918    Uiso  ? C
   C2         1.0     0.334998     0.675462     0.020753    Uiso  ? C
   C3         1.0     0.301577     0.912597     0.017494    Uiso  ? C
   C4         1.0     0.412888     0.769467     0.898923    Uiso  ? C
   C5         1.0     0.356010     0.691557     0.881528    Uiso  ? C
   C6         1.0     0.304806     0.916570     0.869833    Uiso  ? C
   C7         1.0     0.312615     0.777110     0.808287    Uiso  ? C
   C8         1.0     0.346227     0.324056     0.386370    Uiso  ? C
   C9         1.0     0.420578     0.205552     0.493360    Uiso  ? C
   C10        1.0     0.417416     0.351544     0.546777    Uiso  ? C
   C11        1.0     0.362500     0.181006     0.427138    Uiso  ? C
   C12        1.0     0.313796     0.219811     0.643460    Uiso  ? C
   C13        1.0     0.313927     0.370720     0.609823    Uiso  ? C
   C14        1.0     0.318101     0.129096     0.524822    Uiso  ? C
   C15        1.0     0.905023     0.349953     0.023620    Uiso  ? C
   C16        1.0     0.834440     0.176231     0.014301    Uiso  ? C
   C17        1.0     0.801336     0.413783     0.014037    Uiso  ? C
   C18        1.0     0.913094     0.270760     0.896037    Uiso  ? C
   C19        1.0     0.856142     0.194048     0.876065    Uiso  ? C
   C20        1.0     0.805174     0.419661     0.866409    Uiso  ? C
   C21        1.0     0.813062     0.280940     0.803239    Uiso  ? C
   C22        1.0     0.845857     0.820362     0.387364    Uiso  ? C
   C23        1.0     0.919538     0.700170     0.494709    Uiso  ? C
   C24        1.0     0.916023     0.845365     0.549813    Uiso  ? C
   C25        1.0     0.861652     0.676731     0.427304    Uiso  ? C
   C26        1.0     0.811399     0.714911     0.642771    Uiso  ? C
   C27        1.0     0.812317     0.865687     0.610475    Uiso  ? C
   C28        1.0     0.816471     0.625660     0.523596    Uiso  ? C
   C29        1.0     0.595758     0.857763     0.967789    Uiso  ? C
   C30        1.0     0.662719     0.678195     0.974424    Uiso  ? C
   C31        1.0     0.700025     0.913817     0.972202    Uiso  ? C
   C32        1.0     0.587846     0.782523     0.097585    Uiso  ? C
   C33        1.0     0.642938     0.698577     0.113894    Uiso  ? C
   C34        1.0     0.698647     0.918664     0.120315    Uiso  ? C
   C35        1.0     0.688482     0.780955     0.184636    Uiso  ? C
   C36        1.0     0.653149     0.333753     0.608748    Uiso  ? C
   C37        1.0     0.579694     0.210157     0.499474    Uiso  ? C
   C38        1.0     0.585076     0.354266     0.441502    Uiso  ? C
   C39        1.0     0.636066     0.188698     0.573742    Uiso  ? C
   C40        1.0     0.687428     0.213542     0.359392    Uiso  ? C
   C41        1.0     0.689304     0.365655     0.386302    Uiso  ? C
   C42        1.0     0.680565     0.128839     0.481573    Uiso  ? C
   C43        1.0     0.097525     0.359298     0.962570    Uiso  ? C
   C44        1.0     0.163310     0.178081     0.976499    Uiso  ? C
   C45        1.0     0.201743     0.412764     0.975705    Uiso  ? C
   C46        1.0     0.087168     0.285722     0.092545    Uiso  ? C
   C47        1.0     0.141361     0.199696     0.113984    Uiso  ? C
   C48        1.0     0.198476     0.417745     0.123766    Uiso  ? C
   C49        1.0     0.186307     0.280758     0.187916    Uiso  ? C
   C50        1.0     0.154343     0.842134     0.608783    Uiso  ? C
   C51        1.0     0.080352     0.718823     0.501104    Uiso  ? C
   C52        1.0     0.085211     0.863186     0.443597    Uiso  ? C
   C53        1.0     0.137202     0.697160     0.573587    Uiso  ? C
   C54        1.0     0.187739     0.723540     0.358560    Uiso  ? C
   C55        1.0     0.189156     0.875658     0.385620    Uiso  ? C
   C56        1.0     0.181380     0.637881     0.480221    Uiso  ? C
   Sm1        1.0     0.499815     0.293762     0.003887    Uiso  ? Sm
   Sm2        1.0     0.000176     0.793904     0.003338    Uiso  ? Sm
   Cs1        1.0     0.500329     0.793839     0.504167    Uiso  ? Cs
   Cs2        1.0     0.998878     0.297543     0.502935    Uiso  ? Cs
