
#======================================================================
# CRYSTAL DATA
#----------------------------------------------------------------------
data_VESTA_phase_1

_chemical_name_common                  '1(2)                                  '
_cell_length_a                         24.183901
_cell_length_b                         9.909500
_cell_length_c                         9.908000
_cell_angle_alpha                      90.000000
_cell_angle_beta                       91.489998
_cell_angle_gamma                      90.000000
_cell_volume                           2373.652995
_space_group_name_H-M_alt              'P 1'
_space_group_IT_number                 1

loop_
_space_group_symop_operation_xyz
   'x, y, z'

loop_
   _atom_site_label
   _atom_site_occupancy
   _atom_site_fract_x
   _atom_site_fract_y
   _atom_site_fract_z
   _atom_site_adp_type
   _atom_site_U_iso_or_equiv
   _atom_site_type_symbol
   N1         1.0     0.861978     0.422397     0.417218    Uiso  ? N
   N2         1.0     0.005617     0.784375     0.795141    Uiso  ? N
   N3         1.0     0.877139     0.013732     0.962442    Uiso  ? N
   N4         1.0     0.990596     0.210981     0.219340    Uiso  ? N
   N5         1.0     0.853793     0.086602     0.484614    Uiso  ? N
   N6         1.0     0.849309     0.485560     0.083343    Uiso  ? N
   N7         1.0     0.364165     0.922486     0.418193    Uiso  ? N
   N8         1.0     0.504321     0.283020     0.792181    Uiso  ? N
   N9         1.0     0.373423     0.510554     0.963829    Uiso  ? N
   N10        1.0     0.490031     0.707949     0.218083    Uiso  ? N
   N11        1.0     0.352814     0.587690     0.485332    Uiso  ? N
   N12        1.0     0.351277     0.983295     0.082350    Uiso  ? N
   N13        1.0     0.135860     0.422489     0.582114    Uiso  ? N
   N14        1.0     0.995704     0.782516     0.208121    Uiso  ? N
   N15        1.0     0.126693     0.007931     0.033553    Uiso  ? N
   N16        1.0     0.009849     0.208245     0.781611    Uiso  ? N
   N17        1.0     0.147157     0.087642     0.515040    Uiso  ? N
   N18        1.0     0.148910     0.483901     0.917895    Uiso  ? N
   N19        1.0     0.638051     0.922143     0.582952    Uiso  ? N
   N20        1.0     0.493975     0.284115     0.205059    Uiso  ? N
   N21        1.0     0.622658     0.512268     0.039040    Uiso  ? N
   N22        1.0     0.509632     0.711580     0.779783    Uiso  ? N
   N23        1.0     0.646194     0.586538     0.514974    Uiso  ? N
   N24        1.0     0.650791     0.986278     0.916624    Uiso  ? N
   O1         1.0     0.881529     0.402062     0.534663    Uiso  ? O
   O2         1.0     0.868175     0.535874     0.359309    Uiso  ? O
   O3         1.0     0.835991     0.328744     0.354138    Uiso  ? O
   O4         1.0     0.007392     0.756046     0.920788    Uiso  ? O
   O5         1.0     0.005372     0.909179     0.763199    Uiso  ? O
   O6         1.0     0.004059     0.693995     0.707578    Uiso  ? O
   O7         1.0     0.906254     0.928707     0.897705    Uiso  ? O
   O8         1.0     0.826645     0.027673     0.938949    Uiso  ? O
   O9         1.0     0.000697     0.243079     0.097544    Uiso  ? O
   O10        1.0     0.981834     0.298220     0.306867    Uiso  ? O
   O11        1.0     0.989318     0.085108     0.247288    Uiso  ? O
   O12        1.0     0.902837     0.084931     0.051948    Uiso  ? O
   O13        1.0     0.383996     0.901495     0.535232    Uiso  ? O
   O14        1.0     0.373184     0.033373     0.357524    Uiso  ? O
   O15        1.0     0.334986     0.832389     0.358329    Uiso  ? O
   O16        1.0     0.506019     0.185856     0.712734    Uiso  ? O
   O17        1.0     0.397705     0.429092     0.045956    Uiso  ? O
   O18        1.0     0.322164     0.515973     0.951147    Uiso  ? O
   O19        1.0     0.447505     0.655688     0.158893    Uiso  ? O
   O20        1.0     0.485190     0.786432     0.315348    Uiso  ? O
   O21        1.0     0.458508     0.339269     0.820893    Uiso  ? O
   O22        1.0     0.537097     0.675362     0.172920    Uiso  ? O
   O23        1.0     0.404733     0.587551     0.894654    Uiso  ? O
   O24        1.0     0.548124     0.330530     0.849142    Uiso  ? O
   O25        1.0     0.116038     0.401407     0.465075    Uiso  ? O
   O26        1.0     0.126942     0.533551     0.642561    Uiso  ? O
   O27        1.0     0.164933     0.332325     0.642174    Uiso  ? O
   O28        1.0     0.993953     0.685415     0.287684    Uiso  ? O
   O29        1.0     0.102681     0.926821     0.950685    Uiso  ? O
   O30        1.0     0.177918     0.013663     0.047217    Uiso  ? O
   O31        1.0     0.052419     0.155425     0.840018    Uiso  ? O
   O32        1.0     0.014569     0.286934     0.684444    Uiso  ? O
   O33        1.0     0.041558     0.838244     0.178935    Uiso  ? O
   O34        1.0     0.962836     0.176044     0.827376    Uiso  ? O
   O35        1.0     0.095139     0.084454     0.102643    Uiso  ? O
   O36        1.0     0.951887     0.830415     0.151568    Uiso  ? O
   O37        1.0     0.618472     0.901554     0.465567    Uiso  ? O
   O38        1.0     0.631940     0.035840     0.640513    Uiso  ? O
   O39        1.0     0.663973     0.828561     0.646269    Uiso  ? O
   O40        1.0     0.492126     0.255728     0.079432    Uiso  ? O
   O41        1.0     0.494193     0.408918     0.236949    Uiso  ? O
   O42        1.0     0.495642     0.193741     0.292671    Uiso  ? O
   O43        1.0     0.594021     0.426853     0.104403    Uiso  ? O
   O44        1.0     0.673164     0.527438     0.061455    Uiso  ? O
   O45        1.0     0.499673     0.743612     0.901662    Uiso  ? O
   O46        1.0     0.517996     0.798925     0.692083    Uiso  ? O
   O47        1.0     0.511147     0.585735     0.751855    Uiso  ? O
   O48        1.0     0.596498     0.582874     0.949729    Uiso  ? O
   F1         1.0     0.770254     0.804258     0.402548    Uiso  ? F
   F2         1.0     0.768558     0.605585     0.799272    Uiso  ? F
   F3         1.0     0.270871     0.303259     0.402480    Uiso  ? F
   F4         1.0     0.267950     0.104668     0.800981    Uiso  ? F
   F5         1.0     0.229127     0.803306     0.597745    Uiso  ? F
   F6         1.0     0.232135     0.604732     0.199565    Uiso  ? F
   F7         1.0     0.729756     0.304348     0.597350    Uiso  ? F
   F8         1.0     0.731275     0.105992     0.201498    Uiso  ? F
   H1         1.0     0.851908     0.189367     0.460033    Uiso  ? H
   H2         1.0     0.849990     0.492521     0.189111    Uiso  ? H
   H3         1.0     0.907833     0.056681     0.656826    Uiso  ? H
   H4         1.0     0.939976     0.113301     0.507392    Uiso  ? H
   H5         1.0     0.921410     0.827357     0.583961    Uiso  ? H
   H6         1.0     0.954599     0.890248     0.440359    Uiso  ? H
   H7         1.0     0.875454     0.796882     0.325705    Uiso  ? H
   H8         1.0     0.826994     0.708667     0.523800    Uiso  ? H
   H9         1.0     0.835857     0.885006     0.691410    Uiso  ? H
   H10        1.0     0.764895     0.876342     0.648980    Uiso  ? H
   H11        1.0     0.808516     0.117406     0.661548    Uiso  ? H
   H12        1.0     0.768390     0.082688     0.513064    Uiso  ? H
   H13        1.0     0.881222     0.047310     0.287021    Uiso  ? H
   H14        1.0     0.809011     0.017554     0.308959    Uiso  ? H
   H15        1.0     0.901950     0.320806     0.033343    Uiso  ? H
   H16        1.0     0.935355     0.459668     0.114143    Uiso  ? H
   H17        1.0     0.917295     0.425108     0.818387    Uiso  ? H
   H18        1.0     0.951684     0.559499     0.903637    Uiso  ? H
   H19        1.0     0.873152     0.686138     0.822823    Uiso  ? H
   H20        1.0     0.825791     0.494599     0.700947    Uiso  ? H
   H21        1.0     0.760070     0.352862     0.843475    Uiso  ? H
   H22        1.0     0.830493     0.309550     0.850967    Uiso  ? H
   H23        1.0     0.804671     0.302531     0.083378    Uiso  ? H
   H24        1.0     0.763439     0.451257     0.068834    Uiso  ? H
   H25        1.0     0.877006     0.688389     0.075089    Uiso  ? H
   H26        1.0     0.804726     0.665568     0.031687    Uiso  ? H
   H27        1.0     0.350372     0.690444     0.460764    Uiso  ? H
   H28        1.0     0.352692     0.988970     0.188149    Uiso  ? H
   H29        1.0     0.406373     0.560838     0.658644    Uiso  ? H
   H30        1.0     0.438901     0.617012     0.509609    Uiso  ? H
   H31        1.0     0.420356     0.331158     0.588897    Uiso  ? H
   H32        1.0     0.454702     0.392292     0.445389    Uiso  ? H
   H33        1.0     0.376354     0.298300     0.327557    Uiso  ? H
   H34        1.0     0.327703     0.208665     0.524271    Uiso  ? H
   H35        1.0     0.335819     0.384597     0.691381    Uiso  ? H
   H36        1.0     0.264801     0.374761     0.649144    Uiso  ? H
   H37        1.0     0.307479     0.616730     0.662383    Uiso  ? H
   H38        1.0     0.267417     0.581066     0.513787    Uiso  ? H
   H39        1.0     0.381263     0.549212     0.288825    Uiso  ? H
   H40        1.0     0.309078     0.516480     0.308700    Uiso  ? H
   H41        1.0     0.405141     0.822293     0.027607    Uiso  ? H
   H42        1.0     0.437597     0.962928     0.108525    Uiso  ? H
   H43        1.0     0.417729     0.930657     0.813385    Uiso  ? H
   H44        1.0     0.451514     0.064674     0.899349    Uiso  ? H
   H45        1.0     0.372070     0.188127     0.823143    Uiso  ? H
   H46        1.0     0.325357     0.995682     0.701107    Uiso  ? H
   H47        1.0     0.260391     0.852373     0.845556    Uiso  ? H
   H48        1.0     0.330971     0.808998     0.848134    Uiso  ? H
   H49        1.0     0.307394     0.798919     0.082137    Uiso  ? H
   H50        1.0     0.265656     0.946614     0.071153    Uiso  ? H
   H51        1.0     0.376633     0.188709     0.074986    Uiso  ? H
   H52        1.0     0.304686     0.161627     0.035177    Uiso  ? H
   H53        1.0     0.149583     0.190375     0.539702    Uiso  ? H
   H54        1.0     0.147536     0.489700     0.812102    Uiso  ? H
   H55        1.0     0.093574     0.060701     0.341702    Uiso  ? H
   H56        1.0     0.061070     0.116946     0.490754    Uiso  ? H
   H57        1.0     0.079602     0.831103     0.411461    Uiso  ? H
   H58        1.0     0.045291     0.892193     0.555047    Uiso  ? H
   H59        1.0     0.123698     0.798204     0.672769    Uiso  ? H
   H60        1.0     0.172310     0.708679     0.475924    Uiso  ? H
   H61        1.0     0.164137     0.884729     0.308894    Uiso  ? H
   H62        1.0     0.235168     0.874887     0.351085    Uiso  ? H
   H63        1.0     0.192474     0.116821     0.338002    Uiso  ? H
   H64        1.0     0.232550     0.081093     0.486565    Uiso  ? H
   H65        1.0     0.118709     0.049033     0.711482    Uiso  ? H
   H66        1.0     0.190904     0.016406     0.691686    Uiso  ? H
   H67        1.0     0.095000     0.322775     0.972171    Uiso  ? H
   H68        1.0     0.062604     0.463596     0.891434    Uiso  ? H
   H69        1.0     0.082268     0.430981     0.186636    Uiso  ? H
   H70        1.0     0.048595     0.565120     0.100651    Uiso  ? H
   H71        1.0     0.127972     0.688359     0.177324    Uiso  ? H
   H72        1.0     0.174653     0.495822     0.299255    Uiso  ? H
   H73        1.0     0.239568     0.352367     0.154890    Uiso  ? H
   H74        1.0     0.168947     0.309374     0.151785    Uiso  ? H
   H75        1.0     0.192880     0.299647     0.917879    Uiso  ? H
   H76        1.0     0.234527     0.447494     0.929460    Uiso  ? H
   H77        1.0     0.123544     0.689280     0.925476    Uiso  ? H
   H78        1.0     0.195456     0.662223     0.965468    Uiso  ? H
   H79        1.0     0.648046     0.689298     0.539425    Uiso  ? H
   H80        1.0     0.650193     0.993228     0.810844    Uiso  ? H
   H81        1.0     0.592152     0.556507     0.342764    Uiso  ? H
   H82        1.0     0.560012     0.613183     0.492150    Uiso  ? H
   H83        1.0     0.578634     0.327238     0.415682    Uiso  ? H
   H84        1.0     0.545387     0.390135     0.559189    Uiso  ? H
   H85        1.0     0.624546     0.296920     0.674075    Uiso  ? H
   H86        1.0     0.673036     0.208621     0.476122    Uiso  ? H
   H87        1.0     0.664168     0.384753     0.308398    Uiso  ? H
   H88        1.0     0.735133     0.376174     0.350849    Uiso  ? H
   H89        1.0     0.691464     0.617171     0.337999    Uiso  ? H
   H90        1.0     0.731607     0.582681     0.486525    Uiso  ? H
   H91        1.0     0.618720     0.547399     0.712578    Uiso  ? H
   H92        1.0     0.690947     0.517682     0.690776    Uiso  ? H
   H93        1.0     0.598059     0.821598     0.966383    Uiso  ? H
   H94        1.0     0.564754     0.960494     0.885367    Uiso  ? H
   H95        1.0     0.582466     0.926101     0.181218    Uiso  ? H
   H96        1.0     0.548302     0.060637     0.095613    Uiso  ? H
   H97        1.0     0.626837     0.186841     0.177045    Uiso  ? H
   H98        1.0     0.673856     0.994995     0.299176    Uiso  ? H
   H99        1.0     0.739759     0.853280     0.156924    Uiso  ? H
   H100       1.0     0.669329     0.810060     0.149061    Uiso  ? H
   H101       1.0     0.695357     0.803153     0.916787    Uiso  ? H
   H102       1.0     0.736622     0.951809     0.931684    Uiso  ? H
   H103       1.0     0.623222     0.189247     0.924916    Uiso  ? H
   H104       1.0     0.695450     0.166083     0.968624    Uiso  ? H
   C1         1.0     0.908817     0.044648     0.547175    Uiso  ? C
   C2         1.0     0.916993     0.897734     0.498967    Uiso  ? C
   C3         1.0     0.865856     0.866895     0.407254    Uiso  ? C
   C4         1.0     0.818459     0.812604     0.490525    Uiso  ? C
   C5         1.0     0.805364     0.903725     0.609214    Uiso  ? C
   C6         1.0     0.805560     0.053146     0.571557    Uiso  ? C
   C7         1.0     0.850340     0.006916     0.355371    Uiso  ? C
   C8         1.0     0.904183     0.430998     0.037230    Uiso  ? C
   C9         1.0     0.913627     0.499536     0.899702    Uiso  ? C
   C10        1.0     0.863077     0.593548     0.877545    Uiso  ? C
   C11        1.0     0.815805     0.517425     0.806066    Uiso  ? C
   C12        1.0     0.800828     0.387837     0.880188    Uiso  ? C
   C13        1.0     0.801002     0.401427     0.034169    Uiso  ? C
   C14        1.0     0.846474     0.624216     0.021985    Uiso  ? C
   C15        1.0     0.407888     0.547779     0.549084    Uiso  ? C
   C16        1.0     0.416810     0.400382     0.502746    Uiso  ? C
   C17        1.0     0.366365     0.368284     0.408927    Uiso  ? C
   C18        1.0     0.318846     0.312432     0.490819    Uiso  ? C
   C19        1.0     0.305172     0.403172     0.609562    Uiso  ? C
   C20        1.0     0.304757     0.552700     0.572194    Uiso  ? C
   C21        1.0     0.350271     0.507628     0.356219    Uiso  ? C
   C22        1.0     0.406195     0.932418     0.032732    Uiso  ? C
   C23        1.0     0.413911     0.003355     0.896042    Uiso  ? C
   C24        1.0     0.362556     0.094969     0.877417    Uiso  ? C
   C25        1.0     0.315550     0.017577     0.806568    Uiso  ? C
   C26        1.0     0.301541     0.886808     0.879951    Uiso  ? C
   C27        1.0     0.303092     0.898262     0.034154    Uiso  ? C
   C28        1.0     0.346660     0.122601     0.022924    Uiso  ? C
   C29        1.0     0.092082     0.047707     0.451283    Uiso  ? C
   C30        1.0     0.083170     0.900297     0.497636    Uiso  ? C
   C31        1.0     0.133640     0.868195     0.591373    Uiso  ? C
   C32        1.0     0.181152     0.812439     0.509415    Uiso  ? C
   C33        1.0     0.194798     0.903242     0.390700    Uiso  ? C
   C34        1.0     0.195210     0.052741     0.428153    Uiso  ? C
   C35        1.0     0.149719     0.007522     0.644117    Uiso  ? C
   C36        1.0     0.093962     0.432926     0.967270    Uiso  ? C
   C37        1.0     0.086174     0.503715     0.104036    Uiso  ? C
   C38        1.0     0.137528     0.595285     0.122954    Uiso  ? C
   C39        1.0     0.184496     0.517785     0.193831    Uiso  ? C
   C40        1.0     0.198484     0.387084     0.120301    Uiso  ? C
   C41        1.0     0.197087     0.398881     0.966128    Uiso  ? C
   C42        1.0     0.153485     0.623110     0.977534    Uiso  ? C
   C43        1.0     0.591177     0.544523     0.452413    Uiso  ? C
   C44        1.0     0.583016     0.397633     0.500673    Uiso  ? C
   C45        1.0     0.634140     0.366904     0.592496    Uiso  ? C
   C46        1.0     0.681562     0.312584     0.509321    Uiso  ? C
   C47        1.0     0.694658     0.403582     0.390568    Uiso  ? C
   C48        1.0     0.694441     0.553033     0.428074    Uiso  ? C
   C49        1.0     0.649630     0.506978     0.644308    Uiso  ? C
   C50        1.0     0.595857     0.931804     0.962439    Uiso  ? C
   C51        1.0     0.586294     0.000444     0.099873    Uiso  ? C
   C52        1.0     0.636893     0.094209     0.122395    Uiso  ? C
   C53        1.0     0.684016     0.017893     0.194177    Uiso  ? C
   C54        1.0     0.699036     0.888338     0.120045    Uiso  ? C
   C55        1.0     0.699011     0.902013     0.966073    Uiso  ? C
   C56        1.0     0.653663     0.124887     0.978087    Uiso  ? C
   Eu1        1.0     0.001879     0.002813     0.004039    Uiso  ? Eu
   Eu2        1.0     0.498010     0.503145     0.995472    Uiso  ? Eu
   Rb1        1.0     0.998753     0.504697     0.501493    Uiso  ? Rb
   Rb2        1.0     0.501253     0.004705     0.498631    Uiso  ? Rb
