
#======================================================================
# CRYSTAL DATA
#----------------------------------------------------------------------
data_VESTA_phase_1

_chemical_name_common                  'POSCAR1'
_cell_length_a                         9.903000
_cell_length_b                         23.719999
_cell_length_c                         9.760000
_cell_angle_alpha                      90.000000
_cell_angle_beta                       90.000000
_cell_angle_gamma                      90.000000
_cell_volume                           2292.615761
_space_group_name_H-M_alt              'P 1'
_space_group_IT_number                 1

loop_
_space_group_symop_operation_xyz
   'x, y, z'

loop_
   _atom_site_label
   _atom_site_occupancy
   _atom_site_fract_x
   _atom_site_fract_y
   _atom_site_fract_z
   _atom_site_adp_type
   _atom_site_U_iso_or_equiv
   _atom_site_type_symbol
   O1         1.0     0.924200     0.597200     0.923100    Uiso  ? O
   O2         1.0     0.424200     0.097200     0.923100    Uiso  ? O
   O3         1.0     0.164900     0.455300     0.832000    Uiso  ? O
   O4         1.0     0.664900     0.955300     0.832000    Uiso  ? O
   O5         1.0     0.075800     0.597200     0.076900    Uiso  ? O
   O6         1.0     0.575800     0.097200     0.076900    Uiso  ? O
   O7         1.0     0.606270     0.665470     0.514600    Uiso  ? O
   O8         1.0     0.835100     0.455300     0.168000    Uiso  ? O
   O9         1.0     0.335100     0.955300     0.168000    Uiso  ? O
   O10        1.0     0.075800     0.402800     0.076900    Uiso  ? O
   O11        1.0     0.575800     0.902800     0.076900    Uiso  ? O
   O12        1.0     0.835100     0.544700     0.168000    Uiso  ? O
   O13        1.0     0.068820     0.825830     0.498860    Uiso  ? O
   O14        1.0     0.335100     0.044700     0.168000    Uiso  ? O
   O15        1.0     0.924200     0.402800     0.923100    Uiso  ? O
   O16        1.0     0.900790     0.158010     0.499630    Uiso  ? O
   O17        1.0     0.424200     0.902800     0.923100    Uiso  ? O
   O18        1.0     0.389030     0.334690     0.502200    Uiso  ? O
   O19        1.0     0.164900     0.544700     0.832000    Uiso  ? O
   O20        1.0     0.664900     0.044700     0.832000    Uiso  ? O
   O21        1.0     0.000000     0.676300     0.000000    Uiso  ? O
   O22        1.0     0.500000     0.176300     0.000000    Uiso  ? O
   O23        1.0     0.000000     0.323700     0.000000    Uiso  ? O
   O24        1.0     0.500000     0.823700     0.000000    Uiso  ? O
   O25        1.0     0.500000     0.384900     0.400000    Uiso  ? O
   O26        1.0     0.000000     0.884900     0.400000    Uiso  ? O
   O27        1.0     0.500000     0.615100     0.400000    Uiso  ? O
   O28        1.0     0.000000     0.115100     0.400000    Uiso  ? O
   O29        1.0     0.500000     0.384900     0.600000    Uiso  ? O
   O30        1.0     0.000000     0.884900     0.600000    Uiso  ? O
   O31        1.0     0.500000     0.615100     0.600000    Uiso  ? O
   O32        1.0     0.000000     0.115100     0.600000    Uiso  ? O
   O33        1.0     0.697000     0.500000     0.698900    Uiso  ? O
   O34        1.0     0.909100     0.500000     0.757600    Uiso  ? O
   O35        1.0     0.759700     0.500000     0.914300    Uiso  ? O
   O36        1.0     0.197000     0.000000     0.698900    Uiso  ? O
   O37        1.0     0.409100     0.000000     0.757600    Uiso  ? O
   O38        1.0     0.259700     0.000000     0.914300    Uiso  ? O
   O39        1.0     0.303000     0.500000     0.698900    Uiso  ? O
   O40        1.0     0.803000     0.000000     0.698900    Uiso  ? O
   O41        1.0     0.303000     0.500000     0.301100    Uiso  ? O
   O42        1.0     0.090900     0.500000     0.242400    Uiso  ? O
   O43        1.0     0.240300     0.500000     0.085700    Uiso  ? O
   O44        1.0     0.803000     0.000000     0.301100    Uiso  ? O
   O45        1.0     0.590900     0.000000     0.242400    Uiso  ? O
   O46        1.0     0.740300     0.000000     0.085700    Uiso  ? O
   O47        1.0     0.697000     0.500000     0.301100    Uiso  ? O
   O48        1.0     0.197000     0.000000     0.301100    Uiso  ? O
   H1         1.0     0.421000     0.575480     0.905400    Uiso  ? H
   H2         1.0     0.630750     0.719150     0.891750    Uiso  ? H
   H3         1.0     0.701470     0.659930     0.891740    Uiso  ? H
   H4         1.0     0.895970     0.721200     0.638840    Uiso  ? H
   H5         1.0     0.895970     0.661020     0.705360    Uiso  ? H
   H6         1.0     0.891700     0.580200     0.419550    Uiso  ? H
   H7         1.0     0.921000     0.075480     0.905400    Uiso  ? H
   H8         1.0     0.130750     0.219150     0.891750    Uiso  ? H
   H9         1.0     0.201470     0.159930     0.891740    Uiso  ? H
   H10        1.0     0.395970     0.221200     0.638840    Uiso  ? H
   H11        1.0     0.395970     0.161020     0.705360    Uiso  ? H
   H12        1.0     0.391700     0.080200     0.419550    Uiso  ? H
   H13        1.0     0.579000     0.424520     0.905400    Uiso  ? H
   H14        1.0     0.369250     0.280850     0.891750    Uiso  ? H
   H15        1.0     0.298530     0.340070     0.891740    Uiso  ? H
   H16        1.0     0.104030     0.278800     0.638840    Uiso  ? H
   H17        1.0     0.104030     0.338980     0.705360    Uiso  ? H
   H18        1.0     0.108300     0.419800     0.419550    Uiso  ? H
   H19        1.0     0.079000     0.924520     0.905400    Uiso  ? H
   H20        1.0     0.869250     0.780850     0.891750    Uiso  ? H
   H21        1.0     0.798530     0.840070     0.891740    Uiso  ? H
   H22        1.0     0.604030     0.778800     0.638840    Uiso  ? H
   H23        1.0     0.604030     0.838980     0.705360    Uiso  ? H
   H24        1.0     0.608300     0.919800     0.419550    Uiso  ? H
   H25        1.0     0.579000     0.575480     0.094600    Uiso  ? H
   H26        1.0     0.369250     0.719150     0.108250    Uiso  ? H
   H27        1.0     0.298530     0.659930     0.108260    Uiso  ? H
   H28        1.0     0.104030     0.721200     0.361160    Uiso  ? H
   H29        1.0     0.104030     0.661020     0.294640    Uiso  ? H
   H30        1.0     0.108300     0.580200     0.580450    Uiso  ? H
   H31        1.0     0.079000     0.075480     0.094600    Uiso  ? H
   H32        1.0     0.869250     0.219150     0.108250    Uiso  ? H
   H33        1.0     0.798530     0.159930     0.108260    Uiso  ? H
   H34        1.0     0.604030     0.221200     0.361160    Uiso  ? H
   H35        1.0     0.604030     0.161020     0.294640    Uiso  ? H
   H36        1.0     0.608300     0.080200     0.580450    Uiso  ? H
   H37        1.0     0.421000     0.424520     0.094600    Uiso  ? H
   H38        1.0     0.630750     0.280850     0.108250    Uiso  ? H
   H39        1.0     0.701470     0.340070     0.108260    Uiso  ? H
   H40        1.0     0.895970     0.278800     0.361160    Uiso  ? H
   H41        1.0     0.895970     0.338980     0.294640    Uiso  ? H
   H42        1.0     0.891700     0.419800     0.580450    Uiso  ? H
   H43        1.0     0.921000     0.924520     0.094600    Uiso  ? H
   H44        1.0     0.130750     0.780850     0.108250    Uiso  ? H
   H45        1.0     0.201470     0.840070     0.108260    Uiso  ? H
   H46        1.0     0.395970     0.778800     0.361160    Uiso  ? H
   H47        1.0     0.395970     0.838980     0.294640    Uiso  ? H
   H48        1.0     0.391700     0.919800     0.580450    Uiso  ? H
   H49        1.0     0.579000     0.424520     0.094600    Uiso  ? H
   H50        1.0     0.369250     0.280850     0.108250    Uiso  ? H
   H51        1.0     0.298530     0.340070     0.108260    Uiso  ? H
   H52        1.0     0.104030     0.278800     0.361160    Uiso  ? H
   H53        1.0     0.104030     0.338980     0.294640    Uiso  ? H
   H54        1.0     0.108300     0.419800     0.580450    Uiso  ? H
   H55        1.0     0.079000     0.924520     0.094600    Uiso  ? H
   H56        1.0     0.869250     0.780850     0.108250    Uiso  ? H
   H57        1.0     0.798530     0.840070     0.108260    Uiso  ? H
   H58        1.0     0.604030     0.778800     0.361160    Uiso  ? H
   H59        1.0     0.604030     0.838980     0.294640    Uiso  ? H
   H60        1.0     0.608300     0.919800     0.580450    Uiso  ? H
   H61        1.0     0.421000     0.575480     0.094600    Uiso  ? H
   H62        1.0     0.630750     0.719150     0.108250    Uiso  ? H
   H63        1.0     0.701470     0.659930     0.108260    Uiso  ? H
   H64        1.0     0.895970     0.721200     0.361160    Uiso  ? H
   H65        1.0     0.895970     0.661020     0.294640    Uiso  ? H
   H66        1.0     0.891700     0.580200     0.580450    Uiso  ? H
   H67        1.0     0.921000     0.075480     0.094600    Uiso  ? H
   H68        1.0     0.130750     0.219150     0.108250    Uiso  ? H
   H69        1.0     0.201470     0.159930     0.108260    Uiso  ? H
   H70        1.0     0.395970     0.221200     0.361160    Uiso  ? H
   H71        1.0     0.395970     0.161020     0.294640    Uiso  ? H
   H72        1.0     0.391700     0.080200     0.580450    Uiso  ? H
   H73        1.0     0.421000     0.424520     0.905400    Uiso  ? H
   H74        1.0     0.630750     0.280850     0.891750    Uiso  ? H
   H75        1.0     0.701470     0.340070     0.891740    Uiso  ? H
   H76        1.0     0.895970     0.278800     0.638840    Uiso  ? H
   H77        1.0     0.895970     0.338980     0.705360    Uiso  ? H
   H78        1.0     0.891700     0.419800     0.419550    Uiso  ? H
   H79        1.0     0.921000     0.924520     0.905400    Uiso  ? H
   H80        1.0     0.130750     0.780850     0.891750    Uiso  ? H
   H81        1.0     0.201470     0.840070     0.891740    Uiso  ? H
   H82        1.0     0.395970     0.778800     0.638840    Uiso  ? H
   H83        1.0     0.395970     0.838980     0.705360    Uiso  ? H
   H84        1.0     0.391700     0.919800     0.419550    Uiso  ? H
   H85        1.0     0.579000     0.575480     0.905400    Uiso  ? H
   H86        1.0     0.369250     0.719150     0.891750    Uiso  ? H
   H87        1.0     0.298530     0.659930     0.891740    Uiso  ? H
   H88        1.0     0.104030     0.721200     0.638840    Uiso  ? H
   H89        1.0     0.104030     0.661020     0.705360    Uiso  ? H
   H90        1.0     0.108300     0.580200     0.419550    Uiso  ? H
   H91        1.0     0.079000     0.075480     0.905400    Uiso  ? H
   H92        1.0     0.869250     0.219150     0.891750    Uiso  ? H
   H93        1.0     0.798530     0.159930     0.891740    Uiso  ? H
   H94        1.0     0.604030     0.221200     0.638840    Uiso  ? H
   H95        1.0     0.604030     0.161020     0.705360    Uiso  ? H
   H96        1.0     0.608300     0.080200     0.419550    Uiso  ? H
   H97        1.0     0.500000     0.653110     0.770050    Uiso  ? H
   H98        1.0     0.000000     0.153110     0.770050    Uiso  ? H
   H99        1.0     0.500000     0.346890     0.770050    Uiso  ? H
   H100       1.0     0.000000     0.846890     0.770050    Uiso  ? H
   H101       1.0     0.500000     0.653110     0.229950    Uiso  ? H
   H102       1.0     0.000000     0.153110     0.229950    Uiso  ? H
   H103       1.0     0.500000     0.346890     0.229950    Uiso  ? H
   H104       1.0     0.000000     0.846890     0.229950    Uiso  ? H
   H105       1.0     0.772600     0.659760     0.500000    Uiso  ? H
   H106       1.0     0.272600     0.159760     0.500000    Uiso  ? H
   H107       1.0     0.227400     0.340240     0.500000    Uiso  ? H
   H108       1.0     0.727400     0.840240     0.500000    Uiso  ? H
   H109       1.0     0.227400     0.659760     0.500000    Uiso  ? H
   H110       1.0     0.727400     0.159760     0.500000    Uiso  ? H
   H111       1.0     0.772600     0.340240     0.500000    Uiso  ? H
   H112       1.0     0.272600     0.840240     0.500000    Uiso  ? H
   C1         1.0     0.623600     0.680700     0.924700    Uiso  ? C
   C2         1.0     0.928100     0.682800     0.627900    Uiso  ? C
   C3         1.0     0.123600     0.180700     0.924700    Uiso  ? C
   C4         1.0     0.428100     0.182800     0.627900    Uiso  ? C
   C5         1.0     0.376400     0.319300     0.924700    Uiso  ? C
   C6         1.0     0.071900     0.317200     0.627900    Uiso  ? C
   C7         1.0     0.876400     0.819300     0.924700    Uiso  ? C
   C8         1.0     0.571900     0.817200     0.627900    Uiso  ? C
   C9         1.0     0.376400     0.680700     0.075300    Uiso  ? C
   C10        1.0     0.071900     0.682800     0.372100    Uiso  ? C
   C11        1.0     0.876400     0.180700     0.075300    Uiso  ? C
   C12        1.0     0.571900     0.182800     0.372100    Uiso  ? C
   C13        1.0     0.623600     0.319300     0.075300    Uiso  ? C
   C14        1.0     0.928100     0.317200     0.372100    Uiso  ? C
   C15        1.0     0.123600     0.819300     0.075300    Uiso  ? C
   C16        1.0     0.428100     0.817200     0.372100    Uiso  ? C
   C17        1.0     0.376400     0.319300     0.075300    Uiso  ? C
   C18        1.0     0.071900     0.317200     0.372100    Uiso  ? C
   C19        1.0     0.876400     0.819300     0.075300    Uiso  ? C
   C20        1.0     0.571900     0.817200     0.372100    Uiso  ? C
   C21        1.0     0.623600     0.680700     0.075300    Uiso  ? C
   C22        1.0     0.928100     0.682800     0.372100    Uiso  ? C
   C23        1.0     0.123600     0.180700     0.075300    Uiso  ? C
   C24        1.0     0.428100     0.182800     0.372100    Uiso  ? C
   C25        1.0     0.623600     0.319300     0.924700    Uiso  ? C
   C26        1.0     0.928100     0.317200     0.627900    Uiso  ? C
   C27        1.0     0.123600     0.819300     0.924700    Uiso  ? C
   C28        1.0     0.428100     0.817200     0.627900    Uiso  ? C
   C29        1.0     0.376400     0.680700     0.924700    Uiso  ? C
   C30        1.0     0.071900     0.682800     0.627900    Uiso  ? C
   C31        1.0     0.876400     0.180700     0.924700    Uiso  ? C
   C32        1.0     0.571900     0.182800     0.627900    Uiso  ? C
   C33        1.0     0.500000     0.595900     0.937000    Uiso  ? C
   C34        1.0     0.000000     0.095900     0.937000    Uiso  ? C
   C35        1.0     0.500000     0.345000     0.870400    Uiso  ? C
   C36        1.0     0.500000     0.404100     0.937000    Uiso  ? C
   C37        1.0     0.000000     0.904100     0.937000    Uiso  ? C
   C38        1.0     0.500000     0.655000     0.129600    Uiso  ? C
   C39        1.0     0.500000     0.595900     0.063000    Uiso  ? C
   C40        1.0     0.000000     0.155000     0.129600    Uiso  ? C
   C41        1.0     0.000000     0.095900     0.063000    Uiso  ? C
   C42        1.0     0.500000     0.404100     0.063000    Uiso  ? C
   C43        1.0     0.000000     0.845000     0.129600    Uiso  ? C
   C44        1.0     0.000000     0.904100     0.063000    Uiso  ? C
   C45        1.0     0.924500     0.599900     0.500000    Uiso  ? C
   C46        1.0     0.424500     0.099900     0.500000    Uiso  ? C
   C47        1.0     0.075500     0.400100     0.500000    Uiso  ? C
   C48        1.0     0.628500     0.841100     0.500000    Uiso  ? C
   C49        1.0     0.575500     0.900100     0.500000    Uiso  ? C
   C50        1.0     0.128500     0.658900     0.500000    Uiso  ? C
   C51        1.0     0.075500     0.599900     0.500000    Uiso  ? C
   C52        1.0     0.628500     0.158900     0.500000    Uiso  ? C
   C53        1.0     0.575500     0.099900     0.500000    Uiso  ? C
   C54        1.0     0.871500     0.341100     0.500000    Uiso  ? C
   C55        1.0     0.924500     0.400100     0.500000    Uiso  ? C
   C56        1.0     0.424500     0.900100     0.500000    Uiso  ? C
   N1         1.0     0.553340     0.625920     0.504500    Uiso  ? N
   N2         1.0     0.065510     0.871410     0.505100    Uiso  ? N
   N3         1.0     0.959380     0.130860     0.498540    Uiso  ? N
   N4         1.0     0.444390     0.376340     0.501210    Uiso  ? N
   N5         1.0     0.000000     0.624800     0.000000    Uiso  ? N
   N6         1.0     0.500000     0.124800     0.000000    Uiso  ? N
   N7         1.0     0.000000     0.375200     0.000000    Uiso  ? N
   N8         1.0     0.500000     0.875200     0.000000    Uiso  ? N
   N9         1.0     0.500000     0.655000     0.870400    Uiso  ? N
   N10        1.0     0.000000     0.155000     0.870400    Uiso  ? N
   N11        1.0     0.000000     0.845000     0.870400    Uiso  ? N
   N12        1.0     0.500000     0.345000     0.129600    Uiso  ? N
   N13        1.0     0.785600     0.500000     0.784900    Uiso  ? N
   N14        1.0     0.285600     0.000000     0.784900    Uiso  ? N
   N15        1.0     0.214400     0.500000     0.784900    Uiso  ? N
   N16        1.0     0.714400     0.000000     0.784900    Uiso  ? N
   N17        1.0     0.214400     0.500000     0.215100    Uiso  ? N
   N18        1.0     0.714400     0.000000     0.215100    Uiso  ? N
   N19        1.0     0.785600     0.500000     0.215100    Uiso  ? N
   N20        1.0     0.285600     0.000000     0.215100    Uiso  ? N
   N21        1.0     0.871500     0.658900     0.500000    Uiso  ? N
   N22        1.0     0.371500     0.158900     0.500000    Uiso  ? N
   N23        1.0     0.128500     0.341100     0.500000    Uiso  ? N
   N24        1.0     0.371500     0.841100     0.500000    Uiso  ? N
   Ho1        1.0     0.000000     0.500000     0.000000    Uiso  ? Ho
   Ho2        1.0     0.500000     0.000000     0.000000    Uiso  ? Ho
   K1         1.0     0.500000     0.500000     0.500000    Uiso  ? K
   K2         1.0     0.000000     0.000000     0.500000    Uiso  ? K
